powerflow/Codes/PF_Formulation/resultados_csv/14/caso_red2/resultados_barras_PM.csv
ID_Barra,Tipo_Barra,Tensao_Mag_pu,Tensao_Ang_graus,P_Geracao_pu,Q_Geracao_pu,P_Carga_pu,Q_Carga_pu,Desvio_Tensao_QLIM_pu,Corte_Reativo_VLIM_pu
5002,1,0.9920676144774327,15.698888416690927,0.0,0.0,0.0,0.0,0.0,0.0
5008,1,0.993317078876797,15.767450009569487,0.0,0.0,0.0,0.0,0.0,0.0
5019,1,0.9924192084566459,13.837239500194057,0.0,0.0,0.0,0.0,0.0,0.0
5020,1,0.9811091031457607,4.359364785019727,0.0,0.0,0.0,0.0,0.0,0.0
5034,1,0.9882620325680339,17.357878948625547,0.0,0.0,0.0,0.0,0.0,0.0
5035,1,0.9987210208431956,13.069452499260272,0.0,0.0,0.0,0.0,0.0,0.0
5036,1,0.9945017616391654,16.24307410072382,0.0,0.0,0.0,0.0,0.0,0.0
5041,1,1.0004213148716659,14.207339121266909,0.0,0.0,0.0,0.0,0.0,0.0
5042,1,0.99498799438647,16.04893012456652,0.0,0.0,0.0,0.0,0.0,0.0
5043,1,0.9965917412119073,16.15844357910565,0.0,0.0,0.0,0.0,0.0,0.0
5044,1,0.9938736613568495,17.255258251654922,0.0,0.0,-0.29600000000000004,0.0538,0.0,0.0
5068,1,0.9963731533637445,12.438767756796542,0.0,0.0,0.0,0.0,0.0,0.0
5069,1,0.9963731533636319,12.438767756796658,0.0,0.0,0.0,0.0,0.0,0.0
5071,1,1.001290301650297,10.9257647485764,0.0,0.0,0.0,0.0,0.0,0.0
5073,1,0.9968988798177572,12.313761303838833,0.0,0.0,0.032,0.015,0.0,0.0
5075,1,0.9884267490483146,14.930545496871595,0.0,0.0,-0.12,0.044500000000000005,0.0,0.0
5078,1,0.998431173315467,17.773979629155548,0.0,0.0,-0.315,0.0463,0.0,0.0
5079,1,0.9893547443904482,15.13401699640735,0.0,0.0,-0.1,0.038,0.0,0.0
5081,1,0.9970203021366411,-1.7238159692581583,0.0,0.0,0.0,0.0,0.0,0.0
5083,1,0.9907383901699606,-4.596365542491823,0.0,0.0,1.7310000000000003,0.37799999999999995,0.0,0.0
5124,1,0.9936062368354793,16.156146213881772,0.0,0.0,-0.132,0.0025700000000000002,0.0,0.0
5126,1,0.9933146464487457,17.44481591594779,0.0,0.0,-0.327,0.0604,0.0,0.0
5127,1,0.9965762310123033,17.82477632198885,0.0,0.0,-0.218,0.0168,0.0,0.0
5128,1,0.9903839991172393,11.919777374660704,0.0,0.0,0.0,0.0,0.0,0.0
5168,1,0.9890374523546427,12.715653749619053,0.0,0.0,0.0,0.0,0.0,0.0
5169,1,0.9750631302117506,13.158840928489049,0.0,0.0,0.0,0.0,0.0,0.0
5170,1,0.9877233845971524,18.241820534278244,0.0,0.0,-0.792,0.0978,0.0,0.0
5176,1,1.048827697938336,-1.249570289954399,0.0,0.0,1.892,-0.215,0.0,0.0
5200,1,1.0671913410104095,0.04530237452569121,0.0,0.0,15.36,-4.89,0.0,0.0
5202,1,1.0085036218706778,-1.0334817024119078,0.0,0.0,0.0,0.0,0.0,0.0
5211,1,0.9955793541504441,-9.242701934685247,0.0,0.0,0.0,0.0,0.0,0.0
5212,1,0.995275691659416,-9.309693606079021,0.0,0.0,0.9878,0.07346,0.0,0.0
5213,1,1.0089691597822936,-14.497535823839604,0.0,0.0,2.952,0.971,0.0,0.0
5214,1,1.0081694120122688,-14.743664392510258,0.0,0.0,0.0,0.0,0.0,0.0
5215,1,1.008169412012249,-14.743664392510656,0.0,0.0,0.0,0.0,0.0,0.0
5216,1,1.0099842214787136,-1.8260390027527191,0.0,0.0,1.536,0.07609,0.0,0.0
5218,2,0.9955266489460095,-8.577831260162537,0.1420066468792328,0.0,0.0,0.0,0.0,0.0
5219,2,0.9955266494157429,-8.577833867217825,0.14200609014379684,0.0,0.0,0.0,0.0,0.0
5220,2,1.0087849150425225,1.4463879172282448,0.8268331308072153,0.0,0.0,0.0,0.0,0.0
5222,1,1.010265188689804,-1.6556317267560068,0.0,0.0,5.082,-0.179,0.0,0.0
5226,1,1.0149583543188807,-3.3030737372762324,0.0,0.0,-0.23600000000000002,-0.001,0.0,0.0
5231,1,1.00624718938977,-0.9976664536041384,0.0,0.0,0.0,0.0,0.0,0.0
5232,2,1.048986749426492,1.9582101673434105,0.17159486418147937,0.19998779185184343,0.0,0.0,0.0,0.0
5235,1,1.0032425007266894,-0.48716537658564896,0.0,0.0,0.0,0.0,0.0,0.0
5236,1,1.0062471893896516,-0.9976664536053251,0.0,0.0,0.0,0.0,0.0,0.0
5237,1,1.0156818670389443,-0.31981647328779933,0.0,0.0,0.0,0.0,0.0,0.0
5238,1,1.0268333178317703,0.4720690061309449,0.0,0.0,0.0,0.0,0.0,0.0
5239,1,0.9985513648467514,-1.6556317267560101,0.0,0.0,0.0,0.0,0.0,0.0
5240,2,0.9969643260821194,9.450401633963954,0.13291334173072802,0.0,0.0,0.0,0.0,0.0
5241,1,0.997602242804548,6.26292869680966,0.0,0.0,0.0,0.0,0.0,0.0
5242,2,0.99695977531703,9.455952092413499,0.13318627438694766,0.0,0.0,0.0,0.0,0.0
5243,1,1.0066154061396986,3.251445467785602,0.0,0.0,1.6480000000000001,0.040999999999999995,0.0,0.0
5245,1,0.9980036728253722,6.5163001797582805,0.0,0.0,0.0,0.0,0.0,0.0
5246,1,0.9929164468367463,5.476965349407847,0.0,0.0,1.014,0.08,0.0,0.0
5247,1,1.0141342538514166,-3.394697393268154,0.0,0.0,0.0,0.0,0.0,0.0
5248,1,1.0141342538514029,-3.394697393268194,0.0,0.0,0.0,0.0,0.0,0.0
5249,1,0.9500033864229914,-3.1253262538968336,0.0,0.0,0.0,0.0,0.0,0.0
5252,1,1.0365106822480277,4.824678597993638,0.0,0.0,0.0,0.0,0.0,0.0
5253,1,1.0010103330470645,3.124315415048461,0.0,0.0,0.0,0.0,0.0,0.0
5254,1,0.9989129949514903,7.657082480080856,0.0,0.0,0.0,0.0,0.0,0.0
5255,1,1.0396410003783647,5.381938422348918,0.0,0.0,0.0,0.0,0.0,0.0
5256,1,1.0010103330480256,3.124315415053698,0.0,0.0,0.0,0.0,0.0,0.0
5257,1,0.9965770485568083,6.275622455457901,0.0,0.0,0.0,0.0,0.0,0.0
5258,1,0.998068184187533,6.7554300240187795,0.0,0.0,0.0,0.0,0.0,0.0
5259,1,1.0143226164335941,-3.3737166125457576,0.0,0.0,0.0,0.0,0.0,0.0
5262,1,1.0023559258206596,11.053902292491033,0.0,0.0,0.0,0.0,0.0,0.0
5263,1,0.9946638648213907,10.7866758457816,0.0,0.0,0.34900000000000003,0.01,0.0,0.0
5264,1,1.0143226164336092,-3.373716612545716,0.0,0.0,0.0,0.0,0.0,0.0
5265,1,0.9973130017232856,11.048399019397172,0.0,0.0,0.0,0.0,0.0,0.0
5267,1,0.9973130017232857,11.048399019397172,0.0,0.0,0.0,0.0,0.0,0.0
5268,1,0.9973130017231183,11.048399019396866,0.0,0.0,0.0,0.0,0.0,0.0
5269,1,0.9973130017231183,11.048399019396866,0.0,0.0,0.0,0.0,0.0,0.0
5271,1,0.9966146194550847,-9.378973260356748,0.0,0.0,1.8969999999999998,0.1844,0.0,0.0
5272,1,1.009340764968312,-8.86616898803151,0.0,0.0,0.0,0.0,0.0,0.0
5273,1,1.0070057279837845,-11.737476607922394,0.0,0.0,1.963,0.7390000000000001,0.0,0.0
5274,1,1.0093407649682844,-8.866168988031866,0.0,0.0,0.0,0.0,0.0,0.0
5276,1,1.0074173905870254,3.0236668788093746,0.0,0.0,0.0,0.0,0.0,0.0
5277,1,1.007417390587034,3.02366687880954,0.0,0.0,0.0,0.0,0.0,0.0
5285,1,1.018898325504877,0.4519965604780591,0.0,0.0,0.0,0.0,0.0,0.0
5286,1,1.0188983255048722,0.4519965604779903,0.0,0.0,0.0,0.0,0.0,0.0
5287,1,0.9859270854723826,-1.264821014485712,0.0,0.0,0.0,0.0,0.0,0.0
5288,1,0.9859270854723868,-1.2648210144856011,0.0,0.0,0.0,0.0,0.0,0.0
5299,1,1.001550206546788,20.425600963253718,0.0,0.0,-0.516,0.032,0.0,0.0
5315,1,1.0154507310698004,14.771342178487757,0.0,0.0,-0.324,0.1,0.0,0.0
5318,1,1.0509764355209663,-1.1418537007839478,0.0,0.0,1.47,-0.36700000000000005,0.0,0.0
5320,1,0.9852438638482106,3.642227199728972,0.0,0.0,-0.084,0.0101,0.0,0.0
5337,1,0.9987059384976986,13.057246374623151,0.0,0.0,0.0,0.0,0.0,0.0
5350,1,1.053436804688912,12.357574083121273,0.0,0.0,0.0,0.0,0.0,0.0
5351,1,0.9879280421458608,14.93825052455801,0.0,0.0,0.0,0.0,0.0,0.0
5352,1,0.9978819591542367,15.905896055924558,0.0,0.0,0.0,0.0,0.0,0.0
5353,1,0.99405261039253,17.32209378965809,0.0,0.0,0.0,0.0,0.0,0.0
5370,1,1.0380466829657469,0.1019120979099558,0.0,0.0,0.0,0.0,0.0,0.0
5371,1,0.9745324610986379,-0.015286957533323025,0.0,0.0,0.0,0.0,0.0,0.0
5373,1,0.9803007010997506,4.14843042053878,0.0,0.0,0.0,0.0,0.0,0.0
5374,1,0.9878107444437662,5.651837836134702,0.0,0.0,-0.192,0.0163,0.0,0.0
5376,1,0.9949705253275997,14.00934304763454,0.0,0.0,0.0,0.0,0.0,0.0
5377,1,0.9949705253276665,14.009343047634193,0.0,0.0,0.0,0.0,0.0,0.0
5378,1,1.0305903873552222,-4.067414550158344,0.0,0.0,2.092,-0.14,0.0,0.0
5380,1,1.044047140443277,2.517939260328324,0.0,0.0,12.24,-3.0,0.0,0.0
5381,1,0.9995964049147428,0.1349131612425154,0.0,0.0,0.0,0.0,0.0,0.0
5383,1,0.9869663532443883,-1.4340856467986143,0.0,0.0,1.8689999999999998,0.953,0.0,0.0
5386,1,1.0054351353539284,-4.106560504502493,0.0,0.0,0.0,0.0,0.0,0.0
5387,1,1.0060609058622847,-4.113167097897091,0.0,0.0,0.0,0.0,0.0,0.0
5388,1,1.006060905862291,-4.113167097896947,0.0,0.0,0.0,0.0,0.0,0.0
5394,1,0.998488661209921,17.388748091397627,0.0,0.0,0.0,0.0,0.0,0.0
5407,1,1.0002661640945036,14.32708190596691,0.0,0.0,0.0,0.0,0.0,0.0
5408,1,1.043777906938766,2.554467709117203,0.0,0.0,0.0,0.0,0.0,0.0
5409,1,0.9750438585188704,1.8629518944150312,0.0,0.0,0.0,0.0,0.0,0.0
5410,1,1.0092090534330163,3.6587993131075853,0.0,0.0,0.0,0.0,0.0,0.0
5411,1,1.0218037525676726,3.658799313107602,0.0,0.0,-0.233,0.01135,0.0,0.0
5412,1,1.000638759805001,1.8629518944150836,0.0,0.0,0.0,0.0,0.0,0.0
5413,1,1.0117194921298998,1.9477482632793943,0.0,0.0,0.8619999999999999,0.35700000000000004,0.0,0.0
5414,1,1.0056815256621194,1.8640151018718385,0.0,0.0,0.0,0.0,0.0,0.0
5415,1,0.9926529556196018,1.8640151018717872,0.0,0.0,0.0,0.0,0.0,0.0
5416,1,1.003677550754554,-0.2554784463515153,0.0,0.0,0.10300000000000001,0.057999999999999996,0.0,0.0
5417,1,1.0157884105164332,-0.11974619540117977,0.0,0.0,0.0,0.0,0.0,0.0
5418,1,1.0114763722924491,1.8629518944151373,0.0,0.0,0.0,0.0,0.0,0.0
5419,1,1.011158488344761,1.8640151018718918,0.0,0.0,0.0,0.0,0.0,0.0
5421,1,1.0128855144836029,8.39283392361195,0.0,0.0,0.0,0.0,0.0,0.0
5422,1,0.999170378683456,5.035317025549369,0.0,0.0,0.142,0.028999999999999998,0.0,0.0
5423,1,1.0011799042576337,6.341289936409911,0.0,0.0,0.784,0.217,0.0,0.0
5424,1,0.9902139605178655,4.624084129747952,0.0,0.0,0.0,0.0,0.0,0.0
5425,1,1.0008508838767454,14.287268121507505,0.0,0.0,0.0,0.0,0.0,0.0
5426,1,0.9996488912701741,4.597369892266619,0.0,0.0,0.022000000000000002,0.006999999999999999,0.0,0.0
5427,1,1.0008508838767765,14.287268121507298,0.0,0.0,0.0,0.0,0.0,0.0
5428,1,1.0329124795893068,4.637662055498468,0.0,0.0,0.0,0.0,0.0,0.0
5429,1,1.0002661640944885,14.327081905966994,0.0,0.0,0.0,0.0,0.0,0.0
5431,1,1.0003936113108045,11.949223703222515,0.0,0.0,0.0,0.0,0.0,0.0
5433,1,0.998471692568485,9.846074115231714,0.0,0.0,1.006,0.196,0.0,0.0
5434,1,1.0006812855218017,13.236802082825093,0.0,0.0,0.0,0.0,0.0,0.0
5438,1,0.992537209340198,15.663784319801252,0.0,0.0,0.0,0.0,0.0,0.0
5439,1,0.9913865227468909,16.67686594896657,0.0,0.0,-0.42200000000000004,0.14300000000000002,0.0,0.0
5441,1,0.9969889932987092,13.455968898799377,0.0,0.0,0.0,0.0,0.0,0.0
5442,1,0.999237939635269,9.955941274734919,0.0,0.0,0.0,0.0,0.0,0.0
5443,2,0.9989482443607484,10.210467534779875,0.002774649472670962,0.1997265085359866,2.314,0.037000000000000005,0.0,0.0
5444,1,0.9997852965118813,9.954299064148126,0.0,0.0,0.0,0.0,0.0,0.0
5445,1,0.986183362484824,9.954299064148065,0.0,0.0,0.0,0.0,0.0,0.0
5448,1,0.9801731946577036,3.062898913503242,0.0,0.0,0.0,0.0,0.0,0.0
5449,1,0.991247335208627,1.2078169566765238,0.0,0.0,0.0,0.0,0.0,0.0
5451,1,1.0196028359534517,0.7250162821402119,0.0,0.0,0.0,0.0,0.0,0.0
5452,1,1.005534291521441,-0.7464745198061482,0.0,0.0,0.0,0.0,0.0,0.0
5453,1,1.006871789051762,-3.803918545940908,0.0,0.0,2.4400000000000004,0.759,0.0,0.0
5456,1,1.0054351353539326,-4.106560504502392,0.0,0.0,0.0,0.0,0.0,0.0
5457,1,1.0054351353539401,-4.106560504502207,0.0,0.0,0.0,0.0,0.0,0.0
5458,1,1.0056613907742422,-0.7452523720558165,0.0,0.0,0.0,0.0,0.0,0.0
5459,1,1.038153319347672,20.35582732209492,0.0,0.0,-0.455,0.0,0.0,0.0
5460,2,1.0068717890462107,-3.803726316978651,0.34012967914250336,0.0,0.0,0.0,0.0,0.0
5461,1,0.99379669490713,14.95542890310666,0.0,0.0,0.0,0.0,0.0,0.0
5462,1,0.9950351147709391,15.24688629082559,0.0,0.0,0.0,0.0,0.0,0.0
5463,1,1.0001308021667812,14.340229776697283,0.0,0.0,0.5199999999999999,-0.013999999999999999,0.0,0.0
5466,2,0.9941054531200151,17.72382184852106,0.5007516316135413,0.0,0.0,0.0,0.0,0.0
5468,1,0.987622908655484,15.589858537459627,0.0,0.0,0.201,-0.005,0.0,0.0
5470,1,1.0013625730552151,17.240294012405005,0.0,0.0,0.0,0.0,0.0,0.0
5471,1,1.0048715947194486,-0.9113999366395735,0.0,0.0,0.0,0.0,0.0,0.0
5472,1,0.9787067009275371,5.682756452162166,0.0,0.0,-0.085,0.0167,0.0,0.0
5473,1,0.9963490223063242,-3.0669247963466404,0.0,0.0,1.1989999999999998,0.36200000000000004,0.0,0.0
5474,1,0.9845579905494436,14.815434655162397,0.0,0.0,0.0,0.0,0.0,0.0
5475,1,0.9950371529832384,14.072580468824652,0.0,0.0,0.098,0.006,0.0,0.0
5476,1,0.9949705253276665,14.009343047634193,0.0,0.0,0.0,0.0,0.0,0.0
5477,1,0.9616507215847475,19.24066116300944,0.0,0.0,0.0,0.0,0.0,0.0
5478,1,0.9949705253275997,14.00934304763454,0.0,0.0,0.0,0.0,0.0,0.0
5480,1,1.0451183552041898,-0.8834290093681119,0.0,0.0,0.0,0.0,0.0,0.0
5481,1,0.9847348415117376,-1.6431015335546055,0.0,0.0,0.0,0.0,0.0,0.0
5482,1,0.9917802705618816,-6.966740284863281,0.0,0.0,0.0,0.0,0.0,0.0
5483,1,0.9992602275519008,-5.120457663917632,0.0,0.0,1.885,0.20800000000000002,0.0,0.0
5484,1,0.9997362945394547,-6.969146284158883,0.0,0.0,0.0,0.0,0.0,0.0
5485,1,1.0186216248043989,-6.968633286229358,0.0,0.0,0.0,0.0,0.0,0.0
5486,1,0.987494852464415,-0.7668572140118872,0.0,0.0,0.0,0.0,0.0,0.0
5487,1,1.0079996344295843,-6.967296470313662,0.0,0.0,0.0,0.0,0.0,0.0
5488,1,0.9849559855036774,-1.1325160600748738,0.0,0.0,0.0,0.0,0.0,0.0
5489,1,0.9825486600335184,1.2139927585574652,0.0,0.0,0.0,0.0,0.0,0.0
5518,1,1.013953834335624,17.023417799063157,0.0,0.0,0.0,0.0,0.0,0.0
5519,1,1.0345112121912121,19.534291893045328,0.0,0.0,0.0,0.0,0.0,0.0
5527,1,0.9875538003266715,-0.7634539089609192,0.0,0.0,0.0,0.0,0.0,0.0
5536,1,0.977257114516807,3.026850583736511,0.0,0.0,0.0,0.0,0.0,0.0
5537,1,0.9912499159124964,0.7145147373974092,0.0,0.0,0.0,0.0,0.0,0.0
5611,1,0.9907145737162802,-2.915885627546575,0.0,0.0,0.08585000000000001,-0.0361,0.0,0.0
5612,1,0.9805766852354381,6.061833502025575,0.0,0.0,-0.29100000000000004,0.0353,0.0,0.0
5613,1,0.9978087423100478,-4.008949669624024,0.0,0.0,0.305,-0.011000000000000001,0.0,0.0
5621,1,1.0124745960095456,10.059970049017435,0.0,0.0,0.0,0.0,0.0,0.0
5623,1,0.9975456571887403,11.189815441014554,0.0,0.0,0.785,0.55,0.0,0.0
5624,1,0.996037607490768,11.28190684060081,0.0,0.0,0.0,0.0,0.0,0.0
5625,1,0.9960376074907556,11.281906840600886,0.0,0.0,0.0,0.0,0.0,0.0
5626,1,0.9966975434805418,11.241553174108047,0.0,0.0,0.0,0.0,0.0,0.0
5627,1,0.9966975434805385,11.241553174108066,0.0,0.0,0.0,0.0,0.0,0.0
5631,1,1.0195358931273704,7.836763619260986,0.0,0.0,0.0,0.0,0.0,0.0
5633,1,1.004175919990424,5.959014522303084,0.0,0.0,0.0,0.0,0.0,0.0
5641,1,0.9933103301432653,-1.9370304281527353,0.0,0.0,0.0,0.0,0.0,0.0
5643,1,1.0064712034932886,-5.252554853811599,0.0,0.0,2.275,0.6709999999999999,0.0,0.0
5651,1,0.9979555931784195,-1.0594835614961535,0.0,0.0,0.0,0.0,0.0,0.0
5653,1,0.9930973101384583,-4.151076961148431,0.0,0.0,1.455,0.314,0.0,0.0
5656,1,0.9745621760607256,0.00680674165542169,0.0,0.0,0.0,0.0,0.0,0.0
5658,2,0.9745745087425991,0.16412932222788296,0.08210267029262337,0.0,0.0,0.0,0.0,0.0
5659,2,0.9745744981536291,0.16390049599699877,0.08199357640995572,0.0,0.0,0.0,0.0,0.0
5660,2,0.9966300542310222,1.8939451200532815,0.21441679465545802,0.0,0.0,0.0,0.0,0.0
5690,1,0.9740774001914202,-0.056000458603386566,0.0,0.0,1.66,0.546,0.0,0.0
5702,1,0.9910309031296735,5.88945172159779,0.0,0.0,-0.486,0.00658,0.0,0.0
5745,1,1.0015516616499949,18.2574368968322,0.0,0.0,0.0,0.0,0.0,0.0
5746,3,0.9696020901369653,1.875329480095815e-12,0.03955927076772714,-0.18593612296841855,0.0,0.0,0.0,0.0
5799,2,1.0469770281288475,2.342766138901804,0.06402318069808874,0.11582068826606648,0.0,0.0,0.0,0.0
...
